 5

 C                  4.42405160   -0.84050602    0.00000000
 H                  4.78070603   -1.84931602    0.00000000
 H                  4.78072444   -0.33610783    0.87365150
 H                  4.78072444   -0.33610783   -0.87365150
 R                  3.91405160   -0.84049973    0.00000000

